Version 4
SHEET 1 880 680
WIRE -32 64 -80 64
WIRE 80 64 48 64
WIRE 112 64 80 64
WIRE 208 64 192 64
WIRE 320 64 288 64
WIRE 416 64 320 64
WIRE 496 64 416 64
WIRE 496 112 496 64
WIRE -80 128 -80 64
WIRE 80 128 80 64
WIRE 320 160 320 144
WIRE 368 160 320 160
WIRE 416 160 416 128
WIRE 416 160 368 160
WIRE -80 240 -80 192
WIRE 80 240 80 192
WIRE 80 240 -80 240
WIRE 240 240 80 240
WIRE 368 240 240 240
WIRE 496 240 496 192
WIRE 496 240 368 240
WIRE 240 256 240 240
FLAG 240 256 0
SYMBOL cap -96 128 R0
SYMATTR InstName Ca1
SYMATTR Value 42.1n
SYMBOL cap 64 128 R0
SYMATTR InstName Ca2
SYMATTR Value 0.13µ
SYMBOL ind 96 80 R270
WINDOW 0 32 56 VTop 2
WINDOW 3 5 56 VBottom 2
SYMATTR InstName Ma2
SYMATTR Value 72
SYMBOL res 304 48 R90
WINDOW 0 0 56 VBottom 2
WINDOW 3 32 56 VTop 2
SYMATTR InstName Ra2
SYMATTR Value 4.1
SYMBOL res 304 48 R0
WINDOW 3 -23 82 Left 2
SYMATTR Value 36419
SYMATTR InstName Rr1
SYMBOL res 352 144 R0
SYMATTR InstName Rr2
SYMATTR Value 82568
SYMBOL cap 400 64 R0
SYMATTR InstName Cr1
SYMATTR Value 2.67n
SYMBOL ind 480 96 R0
SYMATTR InstName Mr1
SYMATTR Value 8.17
SYMBOL current -32 64 R270
WINDOW 0 32 40 VTop 2
WINDOW 3 -32 40 VBottom 2
WINDOW 123 36 -32 VBottom 2
WINDOW 39 0 0 Left 0
SYMATTR InstName Q
SYMATTR Value ""
SYMATTR Value2 AC 0.001 0
TEXT -102 280 Left 2 !.ac dec 1000 10 10000
