Version 4
SHEET 1 924 680
WIRE 32 112 0 112
WIRE 160 112 112 112
WIRE 288 112 240 112
WIRE 336 112 288 112
WIRE 464 112 416 112
WIRE 704 112 544 112
WIRE 848 112 704 112
WIRE 704 128 704 112
WIRE 704 128 640 128
WIRE 752 128 704 128
WIRE 0 176 0 112
WIRE 288 176 288 112
WIRE 848 176 848 112
WIRE 704 208 640 208
WIRE 752 208 752 192
WIRE 752 208 704 208
WIRE 704 240 704 208
WIRE 0 320 0 256
WIRE 288 320 288 240
WIRE 288 320 0 320
WIRE 448 320 288 320
WIRE 704 320 448 320
WIRE 848 320 848 256
WIRE 848 320 704 320
WIRE 448 336 448 320
FLAG 448 336 0
SYMBOL voltage 0 160 R0
WINDOW 0 -48 50 Center 2
WINDOW 123 -102 90 Left 2
WINDOW 39 0 0 Left 0
SYMATTR InstName P
SYMATTR Value ""
SYMATTR Value2 AC 1 0
SYMBOL res 128 96 R90
WINDOW 0 0 56 VBottom 2
WINDOW 3 32 56 VTop 2
SYMATTR InstName Rat1
SYMATTR Value 3977
SYMBOL ind 144 128 R270
WINDOW 0 32 56 VTop 2
WINDOW 3 5 56 VBottom 2
SYMATTR InstName Mat1
SYMATTR Value 1089.7
SYMBOL cap 272 176 R0
SYMATTR InstName Cae1
SYMATTR Value 4.21n
SYMBOL res 432 96 R90
WINDOW 0 0 56 VBottom 2
WINDOW 3 32 56 VTop 2
SYMATTR InstName Rat2
SYMATTR Value 3977
SYMBOL ind 448 128 R270
WINDOW 0 32 56 VTop 2
WINDOW 3 5 56 VBottom 2
SYMATTR InstName Mat2
SYMATTR Value 1089.7
SYMBOL res 624 112 R0
SYMATTR InstName Rr1
SYMATTR Value 2.6Meg
SYMBOL res 688 224 R0
SYMATTR InstName Rr2
SYMATTR Value 5.2Meg
SYMBOL cap 736 128 R0
SYMATTR InstName Cr1
SYMATTR Value 4.77p
SYMBOL ind 832 160 R0
SYMATTR InstName Mr1
SYMATTR Value 47.2
TEXT -104 360 Left 2 !.ac dec 1000 10 10000
