Version 4
SHEET 1 880 680
WIRE -64 80 -80 80
WIRE 48 80 16 80
WIRE 160 80 128 80
WIRE 256 80 224 80
WIRE 448 80 352 80
WIRE 544 80 448 80
WIRE 624 80 544 80
WIRE 352 128 352 80
WIRE 624 128 624 80
WIRE -80 144 -80 80
WIRE 256 144 256 80
WIRE 448 176 448 160
WIRE 496 176 448 176
WIRE 544 176 544 144
WIRE 544 176 496 176
WIRE 496 192 496 176
WIRE -80 272 -80 224
WIRE 80 272 -80 272
WIRE 256 272 256 224
WIRE 256 272 80 272
WIRE 352 272 352 208
WIRE 448 272 352 272
WIRE 496 272 448 272
WIRE 624 272 624 208
WIRE 624 272 496 272
WIRE 448 288 448 272
WIRE 80 304 80 272
FLAG 448 288 0
FLAG 80 304 0
SYMBOL ind -80 96 R270
WINDOW 0 32 56 VTop 2
WINDOW 3 5 56 VBottom 2
SYMATTR InstName Mm
SYMATTR Value 0.05
SYMBOL res 144 64 R90
WINDOW 0 0 56 VBottom 2
WINDOW 3 32 56 VTop 2
SYMATTR InstName Rm
SYMATTR Value 0.4
SYMBOL cap 224 64 R90
WINDOW 0 0 32 VBottom 2
WINDOW 3 32 32 VTop 2
SYMATTR InstName Cm
SYMATTR Value 0.01
SYMBOL ind2 240 240 M180
WINDOW 0 -25 71 Left 2
WINDOW 3 -66 6 Left 2
SYMATTR InstName L2
SYMATTR Value 0.00033
SYMBOL ind2 368 224 R180
WINDOW 0 35 71 Left 2
WINDOW 3 34 9 Left 2
SYMATTR InstName L3
SYMATTR Value 1
SYMBOL res 432 64 R0
WINDOW 3 -27 74 Left 2
SYMATTR Value 10035
SYMATTR InstName RA1
SYMBOL res 480 176 R0
WINDOW 3 -4 76 Left 2
SYMATTR Value 22752
SYMATTR InstName RA2
SYMBOL cap 528 80 R0
WINDOW 3 -15 55 Left 2
SYMATTR Value 18.5µ
SYMATTR InstName CA1
SYMBOL ind 608 112 R0
SYMATTR InstName MA1
SYMATTR Value 4.28
SYMBOL voltage -80 128 R0
WINDOW 123 24 124 Left 2
WINDOW 39 0 0 Left 0
SYMATTR Value2 AC 1 0
SYMATTR InstName F
SYMATTR Value ""
TEXT 264 48 Left 2 !K1 L2 L3 1
TEXT -114 328 Left 2 !.ac dec 1000 10 10000
