Version 4
SHEET 1 880 680
WIRE 32 80 -64 80
WIRE 176 80 112 80
WIRE 304 80 240 80
WIRE 432 80 384 80
WIRE -64 112 -64 80
WIRE -64 240 -64 192
WIRE 176 240 -64 240
WIRE 432 240 432 80
WIRE 432 240 176 240
WIRE 176 256 176 240
FLAG 176 256 0
SYMBOL voltage -64 96 R0
WINDOW 123 24 124 Left 2
WINDOW 39 0 0 Left 0
SYMATTR Value2 AC 1 0
SYMATTR InstName F
SYMATTR Value ""
SYMBOL ind 16 96 R270
WINDOW 0 32 56 VTop 2
WINDOW 3 5 56 VBottom 2
SYMATTR InstName Mm
SYMATTR Value 15.4m
SYMBOL cap 240 64 R90
WINDOW 0 0 32 VBottom 2
WINDOW 3 32 32 VTop 2
SYMATTR InstName Cm
SYMATTR Value 0.12m
SYMBOL res 400 64 R90
WINDOW 0 0 56 VBottom 2
WINDOW 3 32 56 VTop 2
SYMATTR InstName Rm
SYMATTR Value 0.89
TEXT -98 280 Left 2 !.ac dec 1000 10 10000
