Version 4
SHEET 1 880 680
WIRE 352 96 272 96
WIRE 480 96 352 96
WIRE 656 96 480 96
WIRE 272 144 272 96
WIRE 656 144 656 96
WIRE 352 192 352 176
WIRE 400 192 352 192
WIRE 400 208 400 192
WIRE 432 208 400 208
WIRE 480 208 480 160
WIRE 480 208 432 208
WIRE 272 288 272 224
WIRE 432 288 272 288
WIRE 480 288 432 288
WIRE 656 288 656 224
WIRE 656 288 480 288
WIRE 480 304 480 288
FLAG 480 304 0
SYMBOL voltage 272 128 R0
WINDOW 123 -99 101 Left 2
WINDOW 39 0 0 Left 0
WINDOW 0 -67 56 Left 2
SYMATTR Value2 AC 1 0
SYMATTR InstName V
SYMATTR Value ""
SYMBOL res 336 80 R0
WINDOW 3 17 80 Left 2
WINDOW 0 31 44 Left 2
SYMATTR Value 10035.45
SYMATTR InstName Ra1
SYMBOL res 416 192 R0
WINDOW 3 26 76 Left 2
SYMATTR Value 22752
SYMATTR InstName Ra2
SYMBOL cap 464 96 R0
WINDOW 3 23 63 Left 2
WINDOW 0 38 31 Left 2
SYMATTR Value 18.46n
SYMATTR InstName Ca1
SYMBOL ind 640 128 R0
WINDOW 0 38 40 Left 2
SYMATTR InstName Ma1
SYMATTR Value 4.29
TEXT 172 328 Left 2 !.ac dec 100 1 10000
